/*--------------------------------*- C++ -*----------------------------------*\
  =========                 |
  \\      /  F ield         | OpenFOAM: The Open Source CFD Toolbox
   \\    /   O peration     | Website:  https://openfoam.org
    \\  /    A nd           | Version:  10
     \\/     M anipulation  |
\*---------------------------------------------------------------------------*/
FoamFile
{
    format      ascii;
    class       dictionary;
    location    "system";
    object      fvSolution;
}
// * * * * * * * * * * * * * * * * * * * * * * * * * * * * * * * * * * * * * //

solvers
{
    "rho.*"
    {
        solver              PCG;
        preconditioner      DIC;
        tolerance           1e-7;
        relTol              0;
    };

    p
    {
        solver                GAMG;
        tolerance             1e-7;
        relTol                0.01;
        smoother              GaussSeidel;
        cacheAgglomeration    true;
        nCellsInCoarsestLevel 20;
        agglomerator          faceAreaPair;
        mergeLevels           1;
    };

    pFinal
    {
        solver                GAMG;
        tolerance             1e-6;
        relTol                0;
        smoother              GaussSeidel;
        cacheAgglomeration    true;
        nCellsInCoarsestLevel 20;
        agglomerator          faceAreaPair;
        mergeLevels           1;
    };

    U
    {
        solver          PBiCGStab;
        preconditioner  DILU;
        tolerance       1e-8;
        relTol          0.01;
        nSweeps         1;
    }

    UFinal
    {
        solver          PBiCGStab;
        preconditioner  DILU;
        tolerance       1e-9;
        relTol          0;
        nSweeps         1;
    }


    "(h|k|epsilon)"
    {
        solver          PBiCGStab;
        preconditioner  DILU;
        tolerance       1e-8;
        relTol          0.01;
        nSweeps         1;
    }

    "(h|k|epsilon)Final"
    {
        $h;
    }

    "(Yi|YiFinal)"
    {
        solver          PBiCGStab;
        preconditioner  DILU;
        tolerance       1e-8;
        relTol          0;
	minIter		1;
    }

    "(G)Final"
    {
        solver          PCG;
        preconditioner  DIC;
        tolerance       1e-04;
        relTol          0;
    } 
}

PIMPLE
{
    momentumPredictor   	yes;
    nOuterCorrectors    	1;
    nCorrectors         	2;
    nNonOrthogonalCorrectors 	0;

    maxDeltaT           	1e-4;
    maxCo               	0.25;
    alphaTemp           	0.05;
    alphaY             	 	0.05;
}

relaxationFactors
{
    fields
    {
	".*"	1;
    }
    equations
    {
        ".*"    1;
    }
}


// ************************************************************************* //
