/*--------------------------------*- C++ -*----------------------------------*\
| =========                 |                                                 |
| \\      /  F ield         | OpenFOAM: The Open Source CFD Toolbox           |
|  \\    /   O peration     | Version:  2.2.2                                 |
|   \\  /    A nd           | Web:      www.OpenFOAM.org                      |
|    \\/     M anipulation  |                                                 |
\*---------------------------------------------------------------------------*/
FoamFile
{
    version     2.0;
    format      ascii;
    class       dictionary;
    location    "constant";
    object      thermophysicalProperties;
}
// * * * * * * * * * * * * * * * * * * * * * * * * * * * * * * * * * * * * * //

kineticMechanism 	"kinetics";
CHEMKINFile             "/home/chimica2/cuoci/OpenFOAM/cuoci-7/applications/edcSMOKE++/run/tutorials/JetFlameH2/unsteady/02-EDC-Polimi-H2NOX/kinetics/chemkin/kinetics.inp";
CHEMKINThermoFile       "/home/chimica2/cuoci/OpenFOAM/cuoci-7/applications/edcSMOKE++/run/tutorials/JetFlameH2/unsteady/02-EDC-Polimi-H2NOX/kinetics/chemkin/thermo.dat";
CHEMKINTransportFile	"/home/chimica2/cuoci/OpenFOAM/cuoci-7/applications/edcSMOKE++/run/tutorials/JetFlameH2/unsteady/02-EDC-Polimi-H2NOX/kinetics/chemkin/tran.foam";

inertSpecie N2;

thermoType
{
    type            hePsiThermo;
    mixture         reactingMixture;
    transport       sutherland;
    thermo          janaf;
    energy          sensibleEnthalpy;
    equationOfState perfectGas;
    specie          specie;
}

chemistryReader 	chemkinReader;


// ************************************************************************* //
