ELEMENTS
H  O  C   N
END
SPECIES
CH4   H2    O2    CO   CO2    H2O   N2   
END
THERMO
END
REACTIONS		
!Units are cal/mole, mole,  cm-3,  s, K

CH4+0.5O2=>CO+2H2		7.82E+13		 0.00		  30000.
FORD/CH4 0.5/ 
FORD/O2 1.25/

CH4+H2O=>CO+3H2			3.0E+11		          0.00		  30000.

H2+0.5O2=>H2O			1.21E+18		 -1.00		  40000.
FORD/H2 0.25/ 
FORD/O2 1.5/

CO+H2O=>CO2+H2			2.75E+12		 0.00		  20000.

END
