ELEMENTS
H  O  C   N
END
SPECIES
H2 CO O2 CO2 H2O N2   
END
THERMO
END
REACTIONS		
!Units are cal/mole, mole,  cm-3,  s, K

N2=>N2 1 0 0

END
