/*--------------------------------*- C++ -*----------------------------------*\
| =========                 |                                                 |
| \\      /  F ield         | OpenFOAM: The Open Source CFD Toolbox           |
|  \\    /   O peration     | Version:  2.2.2                                 |
|   \\  /    A nd           | Web:      www.OpenFOAM.org                      |
|    \\/     M anipulation  |                                                 |
\*---------------------------------------------------------------------------*/
FoamFile
{
    version     2.0;
    format      ascii;
    class       dictionary;
    location    "system";
    object      fvSchemes;
}
// * * * * * * * * * * * * * * * * * * * * * * * * * * * * * * * * * * * * * //

ddtSchemes
{
    default         Euler;
}

gradSchemes
{
    default         Gauss linear;
}

divSchemes
{
    default         			none;
    div(phi,U)      			Gauss upwind;
    div(phi,h)   			Gauss upwind;
    div(phi,K)      			Gauss upwind;
    div(phid,p)     			Gauss upwind;
    div(phi,epsilon) 			Gauss upwind;
    div(phi,k) 				Gauss upwind;
    div(phi,Yi)   			Gauss limitedLinear01 1;;
    div(((rho*nuEff)*dev2(T(grad(U))))) Gauss linear;
}

laplacianSchemes
{
    default         Gauss linear orthogonal;
}

interpolationSchemes
{
    default         linear;
}

snGradSchemes
{
    default         orthogonal;
}

fluxRequired
{
    default         no;
    p;
}


// ************************************************************************* //
