THERMO ALL
   270.000  1000.000  5000.000
! NASA Polynomial format for CHEMKIN-II
! see README file for disclaimer
AC3H4                   C   3H   4          G    270.00   5000.00 1000.00      1
 2.70995666e+00 1.88963802e-02-9.67755122e-06 2.40413686e-09-2.33045498e-13    2
 2.23177465e+04 8.29094937e+00 5.79990339e-01 2.74162455e-02-2.24573492e-05    3
 1.09240022e-08-2.36301182e-12 2.27437398e+04 1.85668057e+01                   4
ACETOL                  C   3H   6O   2     G    270.00   5000.00 1000.00      1
 3.62193366e+00 2.96106151e-02-1.46703427e-05 3.52817310e-09-3.31113769e-13    2
-4.63697380e+04 1.14486119e+01 4.76998683e-01 4.21903550e-02-3.35399526e-05    3
 1.61079130e-08-3.47604875e-12-4.57407510e+04 2.66211052e+01                   4
ALDEST                  C   6H  10O   3     G    270.00   5000.00 1000.00      1
 8.74262019e+00 5.00904676e-02-2.46975220e-05 5.87831256e-09-5.46312773e-13    2
-7.11386410e+04-8.68601541e+00 3.75206271e+00 7.00526975e-02-5.46408668e-05    3
 2.58405425e-08-5.53687025e-12-7.01405295e+04 1.53905396e+01                   4
ALDINS                  C  13H  20O   1     G    270.00   5000.00 1000.00      1
 1.46869017e+01 1.80451500e-01-1.17198911e-04 3.44280977e-08-3.67353458e-12    2
-6.09818926e+04-2.44658819e+01-2.30702288e+01 3.31480022e-01-3.43741695e-04    3
 1.85456620e-07-4.14306651e-11-5.34304664e+04 1.57690447e+02                   4
AR                      AR  1               G    270.00   5000.00 1000.00      1
 2.50000000e+00-4.50547985e-14 4.05783064e-17-1.36919408e-20 1.57355146e-24    2
-7.45375000e+02 4.36600000e+00 2.50000000e+00 6.58100274e-14-1.25718932e-16    3
 9.71728851e-20-2.61426550e-23-7.45375000e+02 4.36600000e+00                   4
BENZYNE                 C   6H   4          G    270.00   5000.00 1000.00      1
 5.13793285e+00 2.69132471e-02-1.38255145e-05 3.40320225e-09-3.25588281e-13    2
 5.24666672e+04-3.64129364e+00-6.25999652e+00 7.25049645e-02-8.22130907e-05    3
 4.89949197e-08-1.17235177e-11 5.47462531e+04 5.13471270e+01                   4
BIN1A                   C  20H  16          G    270.00   5000.00 1000.00      1
-3.24173600e+00 1.58222900e-01-9.46183500e-05 2.81843100e-08-3.56131000e-12    2
 2.17869900e+04 3.00825300e+01-3.24173601e+00 1.58222900e-01-9.46183501e-05    3
 2.81843100e-08-3.56131001e-12 2.17869900e+04 3.00825300e+01                   4
BIN1B                   C  20H  10          G    270.00   5000.00 1000.00      1
-5.70256700e+00 1.43432300e-01-8.80724700e-05 2.76799200e-08-3.52289900e-12    2
 2.77808900e+04 4.34481200e+01-5.70256700e+00 1.43432300e-01-8.80724700e-05    3
 2.76799200e-08-3.52289901e-12 2.77808900e+04 4.34481200e+01                   4
BIPHENYL                C  12H  10          G    270.00   5000.00 1000.00      1
 1.02107142e+01 6.16845254e-02-3.00148381e-05 6.84977687e-09-6.12564165e-13    2
 1.54321211e+04-3.06510389e+01-1.69561389e+01 1.70351938e-01-1.93015957e-04    3
 1.15517189e-07-2.77794173e-11 2.08654917e+04 1.00413323e+02                   4
BZFUR                   C   8H   6O   1     G    270.00   5000.00 1000.00      1
 6.99753499e+00 4.31803620e-02-2.25360113e-05 5.61398451e-09-5.41518658e-13    2
-2.44323193e+03-1.43014730e+01-1.30041986e+01 1.23187296e-01-1.42546413e-04    3
 8.56209188e-08-2.05432522e-11 1.55711479e+03 8.21953294e+01                   4
C                       C   1               G    270.00   5000.00 1000.00      1
 2.48205566e+00 6.93938387e-05-8.76668885e-08 4.19990795e-11-5.36417397e-15    2
 8.54552888e+04 4.85968651e+00 2.52139025e+00-8.79445215e-05 1.48340652e-07    3
-1.15339281e-10 3.39704161e-14 8.54474219e+04 4.66991986e+00                   4
C10H10                  C  10H  10          G    270.00   5000.00 1000.00      1
-3.27850469e+00 8.20900629e-02-4.57158072e-05 1.17777660e-08-1.15190175e-12    2
 1.31810850e+04 3.73053769e+01-1.49385717e+01 1.28730331e-01-1.15676209e-04    3
 5.84180341e-08-1.28119688e-11 1.55130984e+04 9.35584602e+01                   4
C10H6CH3                C  11H   9          G    270.00   5000.00 1000.00      1
 4.45742983e+00 6.60474225e-02-3.53071656e-05 8.88472078e-09-8.56118249e-13    2
 3.97061426e+04 2.26183863e+00-4.64234682e+00 1.02446529e-01-8.99058255e-05    3
 4.52838274e-08-9.95589489e-12 4.15260979e+04 4.61630008e+01                   4
C10H7                   C  10H   7          G    270.00   5000.00 1000.00      1
 7.00556070e+00 5.19824697e-02-2.43525602e-05 5.16481101e-09-4.17195195e-13    2
 4.32252457e+04-1.61959221e+01-1.27012182e+01 1.30809585e-01-1.42593234e-04    3
 8.39919267e-08-2.01239741e-11 4.71666015e+04 7.88778945e+01                   4
C10H7CH2                C  11H   9          G    270.00   5000.00 1000.00      1
 6.55605414e+00 6.51095893e-02-3.53976095e-05 9.00692803e-09-8.74317859e-13    2
 2.91453642e+04-1.14281310e+01-8.87860913e+00 1.26848242e-01-1.28005589e-04    3
 7.07455811e-08-1.63089811e-11 3.22322969e+04 6.30351972e+01                   4
C10H7CH3                C  11H  10          G    270.00   5000.00 1000.00      1
 6.54683428e+00 6.77353086e-02-3.65806667e-05 9.29458987e-09-9.02861672e-13    2
 8.79081486e+03-1.20457354e+01-1.19472746e+01 1.41711744e-01-1.47545320e-04    3
 8.32710254e-08-1.93969705e-11 1.24896366e+04 7.71776494e+01                   4
C10H7CHO                C  11H   8O   1     G    270.00   5000.00 1000.00      1
 6.31219114e+00 6.67063042e-02-3.69984579e-05 9.56819556e-09-9.39957271e-13    2
-2.17472800e+03-6.85154767e+00-5.25986218e+00 1.12994517e-01-1.06430778e-04    3
 5.58564088e-08-1.25120106e-11 1.39682664e+02 4.89769203e+01                   4
C10H7O                  C  10H   7O   1     G    270.00   5000.00 1000.00      1
 5.33947170e+00 6.14550994e-02-3.42083965e-05 8.85384055e-09-8.69682277e-13    2
 9.82260029e+03-2.54237648e+00-5.89146431e+00 1.06378843e-01-1.01594013e-04    3
 5.37775846e-08-1.21006183e-11 1.20687875e+04 5.16403977e+01                   4
C10H7OH                 C  10H   8O   1     G    270.00   5000.00 1000.00      1
 6.34214918e+00 6.26101337e-02-3.46790575e-05 8.96725877e-09-8.81562448e-13    2
-7.89805934e+03-9.40454439e+00-6.93296843e+00 1.15710604e-01-1.14329763e-04    3
 6.20677292e-08-1.41566801e-11-5.24303582e+03 5.46402243e+01                   4
C10H8                   C  10H   8          G    270.00   5000.00 1000.00      1
 6.38992490e+00 5.69189248e-02-3.07981073e-05 7.86178110e-09-7.67461417e-13    2
 1.32992629e+04-1.32718139e+01-1.27812433e+01 1.33603598e-01-1.45825116e-04    3
 8.45464539e-08-1.99386296e-11 1.71334966e+04 7.92179907e+01                   4
C11H12O4                C  11H  12O   4     G    270.00   5000.00 1000.00      1
 2.07861551e+01 6.64614177e-02-3.51164809e-05 8.88017667e-09-8.64051363e-13    2
-6.69588781e+04-7.16346892e+01-8.30390314e+00 1.82821651e-01-2.09656830e-04    3
 1.25240410e-07-2.99541096e-11-6.11408664e+04 6.87080263e+01                   4
C12H18                  C  12H  18          G    270.00   5000.00 1000.00      1
 1.46869017e+01 1.80451500e-01-1.17198911e-04 3.44280977e-08-3.67353458e-12    2
-6.09818926e+04-2.44658819e+01-2.30702288e+01 3.31480022e-01-3.43741695e-04    3
 1.85456620e-07-4.14306651e-11-5.34304664e+04 1.57690447e+02                   4
C12H22                  C  12H  22          G    270.00   5000.00 1000.00      1
 8.97648158e+00 1.00763233e-01-5.18705110e-05 1.27997204e-08-1.22213374e-12    2
-1.20024895e+04-8.39833151e+00-7.57432213e+00 1.66966447e-01-1.51175333e-04    3
 7.90029352e-08-1.77729375e-11-8.69232871e+03 7.14497291e+01                   4
C12H7                   C  12H   7          G    270.00   5000.00 1000.00      1
 7.33086457e+00 6.22330953e-02-3.49859597e-05 9.23894251e-09-9.32879903e-13    2
 5.48129874e+04-1.53535483e+01-1.10939178e+01 1.35932225e-01-1.45534654e-04    3
 8.29380721e-08-1.93576623e-11 5.84979439e+04 7.35353762e+01                   4
C12H8                   C  12H   8          G    270.00   5000.00 1000.00      1
 1.10021844e+01 5.46627281e-02-2.66105211e-05 6.16023563e-09-5.64559651e-13    2
 2.46219070e+04-3.64009606e+01-1.53384401e+01 1.60025226e-01-1.84654268e-04    3
 1.11522734e-07-2.69051842e-11 2.98900320e+04 9.06773265e+01                   4
C14H10                  C  14H  10          G    270.00   5000.00 1000.00      1
 1.28456458e+01 6.64903515e-02-3.24794199e-05 7.53347910e-09-6.90608126e-13    2
 1.74888941e+04-4.70707940e+01-1.96659075e+01 1.96536565e-01-2.27548740e-04    3
 1.37579692e-07-3.32021614e-11 2.39912047e+04 1.09778657e+02                   4
C14H9                   C  14H   9          G    270.00   5000.00 1000.00      1
 1.28456458e+01 6.64903515e-02-3.24794199e-05 7.53347910e-09-6.90608126e-13    2
 4.74989642e+04-4.70707940e+01-1.96659075e+01 1.96536565e-01-2.27548740e-04    3
 1.37579692e-07-3.32021614e-11 5.40012748e+04 1.09778657e+02                   4
C16H10                  C  16H  10          G    270.00   5000.00 1000.00      1
 1.43645619e+01 7.27059092e-02-3.60034067e-05 8.53025758e-09-8.00932736e-13    2
 1.92384606e+04-5.68523848e+01-2.28780797e+01 2.21676475e-01-2.59459256e-04    3
 1.57500824e-07-3.80435743e-11 2.66869889e+04 1.22821832e+02                   4
C16H9                   C  16H   9          G    270.00   5000.00 1000.00      1
 9.23670876e+00 8.42978077e-02-4.79102777e-05 1.27620419e-08-1.29701730e-12    2
 4.85600439e+04-2.76690668e+01-1.76961312e+01 1.92029167e-01-2.09507317e-04    3
 1.20493402e-07-2.82298572e-11 5.39466119e+04 1.02266317e+02                   4
C2-OOQOOH               C   2H   5O   4     G    270.00   5000.00 1000.00      1
 7.63950433e+00 2.52476463e-02-1.29294069e-05 3.14907822e-09-2.96383595e-13    2
-1.68093532e+04-2.45424239e+00 5.04478051e+00 3.56265416e-02-2.84977499e-05    3
 1.35279735e-08-2.89110742e-12-1.62904085e+04 1.00638002e+01                   4
C2-OQOOH                C   2H   4O   3     G    270.00   5000.00 1000.00      1
 6.95889012e+00 1.96204574e-02-1.00701989e-05 2.45523411e-09-2.31132661e-13    2
-3.26757704e+04-3.62625197e+00 4.93561312e+00 2.77135654e-02-2.22098609e-05    3
 1.05483421e-08-2.25440966e-12-3.22711150e+04 6.13488997e+00                   4
C2-QOOH                 C   2H   5O   2     G    270.00   5000.00 1000.00      1
 5.98609707e+00 2.07162268e-02-1.06720567e-05 2.61993510e-09-2.48518615e-13    2
 1.38662547e+03-5.22306333e-01-2.70333425e-01 4.57419488e-02-4.82106397e-05    3
 2.76456571e-08-6.50494911e-12 2.63791157e+03 2.96613543e+01                   4
C2H                     C   2H   1          G    270.00   5000.00 1000.00      1
 4.09701661e+00 2.83135427e-03-4.47322065e-07-1.18322466e-10 2.81792186e-14    2
 6.67891213e+04 1.57501826e+00 4.96825759e+00-6.53609616e-04 4.78012377e-06    3
-3.60328636e-09 8.99420191e-13 6.66148731e+04-2.62821581e+00                   4
C2H2                    C   2H   2          G    270.00   5000.00 1000.00      1
 4.68342757e+00 4.85508318e-03-1.53032448e-06 2.11326986e-10-8.74417856e-15    2
 2.55808911e+04-4.13843678e+00 1.92588592e+00 1.58852498e-02-1.80755744e-05    3
 1.12414936e-08-2.76628583e-12 2.61323995e+04 9.16510768e+00                   4
C2H2O2                  C   2H   2O   2     G    270.00   5000.00 1000.00      1
 4.62746257e+00 1.48809615e-02-8.57483407e-06 2.27864636e-09-2.28077575e-13    2
-2.75627044e+04 2.14890575e+00 8.11882592e-01 3.01432815e-02-3.14683140e-05    3
 1.75409663e-08-4.04365756e-12-2.67995884e+04 2.05568735e+01                   4
C2H3                    C   2H   3          G    270.00   5000.00 1000.00      1
 4.42686729e-01 1.59750593e-02-9.38223969e-06 2.66155863e-09-2.87238817e-13    2
 3.37029703e+04 2.10538552e+01 1.75904366e+00 1.07096315e-02-1.48409811e-06    3
-2.60386909e-09 1.02911811e-12 3.34396989e+04 1.47031939e+01                   4
C2H3CHO                 C   3H   4O   1     G    270.00   5000.00 1000.00      1
 4.56400971e+00 2.05520168e-02-1.07875578e-05 2.68243149e-09-2.56579051e-13    2
-1.25857690e+04 1.78395139e+00-7.27003498e-01 4.17160697e-02-4.25336370e-05    3
 2.38464843e-08-5.54759226e-12-1.15275664e+04 2.73100316e+01                   4
C2H4                    C   2H   4          G    270.00   5000.00 1000.00      1
 1.42975809e+00 1.57938385e-02-7.51670903e-06 1.72030991e-09-1.53824047e-13    2
 5.18169240e+03 1.36741339e+01-2.28794823e-01 2.24280501e-02-1.74680265e-05    3
 8.35452156e-09-1.81237696e-12 5.51340299e+03 2.16756930e+01                   4
C2H4CHO                 C   3H   5O   1     G    270.00   5000.00 1000.00      1
 1.96966159e+00 2.61794102e-02-1.36380466e-05 3.38699281e-09-3.24744117e-13    2
-6.72149916e+02 2.04744499e+01 3.06894614e+00 2.17822720e-02-7.04233930e-06    3
-1.01014539e-09 7.74540433e-13-8.92006826e+02 1.51710374e+01                   4
C2H4O                   C   2H   4O   1     G    270.00   5000.00 1000.00      1
 1.93383950e+00 1.87185306e-02-8.31671773e-06 1.57578925e-09-1.04622157e-13    2
-7.85633176e+03 1.25374923e+01-2.88895776e+00 3.80097197e-02-3.72535013e-05    3
 2.08669783e-08-4.92741942e-12-6.89177230e+03 3.58047013e+01                   4
C2H4O2                  C   2H   4O   2     G    270.00   5000.00 1000.00      1
 3.24638118e+00 2.06272000e-02-1.06305564e-05 2.62575259e-09-2.50664614e-13    2
-3.87551376e+04 1.29090033e+01 4.22059300e+00 1.67303527e-02-4.78528545e-06    3
-1.27109468e-09 7.23547203e-13-3.89499799e+04 8.20899442e+00                   4
C2H4OH                  C   2H   5O   1     G    270.00   5000.00 1000.00      1
 2.63301299e+00 2.01935814e-02-9.86536464e-06 2.33415048e-09-2.15998032e-13    2
-5.29364317e+03 1.46995753e+01 5.77021458e-01 2.84175475e-02-2.22013138e-05    3
 1.05581166e-08-2.27198956e-12-4.88244486e+03 2.46185460e+01                   4
C2H5                    C   2H   5          G    270.00   5000.00 1000.00      1
-1.88915762e+00 2.61412722e-02-1.53491539e-05 4.34148152e-09-4.67128609e-13    2
 1.37541854e+04 3.42009012e+01 2.04507370e+00 1.04043469e-02 8.25623404e-06    3
-1.13954437e-08 3.46710271e-12 1.29673392e+04 1.52205093e+01                   4
C2H5CHO                 C   3H   6O   1     G    270.00   5000.00 1000.00      1
-2.14318032e+00 3.94657949e-02-2.05187105e-05 4.84883950e-09-4.37391287e-13    2
-2.35089494e+04 3.86393246e+01 5.49155266e+00 8.92686303e-03 2.52896873e-05    3
-2.56900924e-08 7.19734169e-12-2.50358960e+04 1.80615129e+00                   4
C2H5OH                  C   2H   6O   1     G    270.00   5000.00 1000.00      1
 3.10718119e+00 2.12906016e-02-8.76258468e-06 1.43255280e-09-6.80656452e-14    2
-3.02353972e+04 9.94634458e+00-5.34483371e-01 3.58572599e-02-3.06125721e-05    3
 1.59992111e-08-3.70973021e-12-2.95070643e+04 2.75152710e+01                   4
C2H5OO                  C   2H   5O   2     G    270.00   5000.00 1000.00      1
 4.05517833e+00 2.22969501e-02-1.08610492e-05 2.53970068e-09-2.31756258e-13    2
-4.47862403e+03 8.11043488e+00 1.36138446e+00 3.30721256e-02-2.70238125e-05    3
 1.33148762e-08-2.92555013e-12-3.93986526e+03 2.11064332e+01                   4
C2H5OOH                 C   2H   6O   2     G    270.00   5000.00 1000.00      1
 5.81577766e+00 2.15395783e-02-9.78874298e-06 2.09478402e-09-1.78306629e-13    2
-2.25163555e+04-2.55233928e+00-1.19968708e-01 4.52825638e-02-4.54032212e-05    3
 2.58377695e-08-6.11405299e-12-2.13292062e+04 2.60842057e+01                   4
C2H6                    C   2H   6          G    270.00   5000.00 1000.00      1
 1.01053362e+00 2.16297753e-02-1.01238611e-05 2.34359795e-09-2.15559951e-13    2
-1.13471439e+04 1.55824054e+01-8.21057048e-01 2.89561379e-02-2.11134051e-05    3
 9.66996062e-09-2.04715062e-12-1.09808258e+04 2.44187716e+01                   4
C3-OQOOH                C   3H   6O   3     G    270.00   5000.00 1000.00      1
 7.62225049e+00 3.08854720e-02-1.66830117e-05 4.22549091e-09-4.08857930e-13    2
-3.78241896e+04-7.04575078e+00-9.04148410e-01 6.49910676e-02-6.78414051e-05    3
 3.83310865e-08-8.93525683e-12-3.61189098e+04 3.40891952e+01                   4
C3H2                    C   3H   2          G    270.00   5000.00 1000.00      1
 6.53586930e+00 4.99268415e-03-1.99987458e-06 3.94878492e-10-3.18868398e-14    2
 6.30225251e+04-6.13471291e+00 5.23555088e+00 1.01939578e-02-9.80178511e-06    3
 5.59615217e-09-1.33220526e-12 6.32825888e+04 1.38571811e-01                   4
C3H3                    C   3H   3          G    270.00   5000.00 1000.00      1
 6.00865197e+00 1.03232016e-02-4.79935393e-06 1.11237194e-09-1.04141468e-13    2
 3.94510453e+04-6.48155038e+00 2.57039897e+00 2.40762136e-02-2.54288720e-05    3
 1.48653840e-08-3.54239447e-12 4.01386959e+04 1.01060329e+01                   4
C3H4O2                  C   3H   4O   2     G    270.00   5000.00 1000.00      1
 7.89522799e+00 1.89469852e-02-9.84826017e-06 2.45064313e-09-2.35548762e-13    2
-3.48554183e+04-1.39265909e+01-1.38405464e+00 5.60641157e-02-6.55239559e-05    3
 3.95677736e-08-9.51483139e-12-3.29995617e+04 3.08405839e+01                   4
C3H4O3                  C   3H   4O   3     G    270.00   5000.00 1000.00      1
 6.06305926e+00 2.55822699e-02-1.37914891e-05 3.52748230e-09-3.45409578e-13    2
-5.47324142e+04 2.44761341e+00 6.14638054e-01 4.73759547e-02-4.64820163e-05    3
 2.53211671e-08-5.79383078e-12-5.36427300e+04 2.87330962e+01                   4
C3H5CHO                 C   4H   6O   1     G    270.00   5000.00 1000.00      1
 4.02036035e+00 3.04183345e-02-1.55592155e-05 3.80260067e-09-3.59795852e-13    2
-1.23581431e+04 8.75287043e+00-1.16010853e+00 5.11402101e-02-4.66420288e-05    3
 2.45244762e-08-5.54026474e-12-1.13220493e+04 3.37456382e+01                   4
C3H5OH                  C   3H   6O   1     G    270.00   5000.00 1000.00      1
 2.24798144e+00 2.71262532e-02-1.28615441e-05 3.04118600e-09-2.85291340e-13    2
-1.71567455e+04 1.95069541e+01 3.80469127e+00 2.08994139e-02-3.52128515e-06    3
-3.18565333e-09 1.27141849e-12-1.74680875e+04 1.19967290e+01                   4
C3H5OO                  C   3H   5O   2     G    270.00   5000.00 1000.00      1
 4.26571462e+00 2.69789853e-02-1.39676078e-05 3.40904723e-09-3.20081597e-13    2
 7.61237969e+03 8.63812017e+00 2.41063762e+00 3.43992933e-02-2.50980698e-05    3
 1.08293552e-08-2.17515860e-12 7.98339509e+03 1.75877944e+01                   4
C3H5OOH                 C   3H   6O   2     G    270.00   5000.00 1000.00      1
 4.96922200e+00 3.03371955e-02-1.60466266e-05 3.99659709e-09-3.81842516e-13    2
-9.60291009e+03 4.11996014e+00 1.08835712e+00 4.58606550e-02-3.93318158e-05    3
 1.95200566e-08-4.26270739e-12-8.82673711e+03 2.28428898e+01                   4
C3H6                    C   3H   6          G    270.00   5000.00 1000.00      1
 2.34691069e+00 2.39243417e-02-1.14446456e-05 2.68640026e-09-2.50428175e-13    2
 6.51073667e+02 1.05953018e+01-1.37158533e+00 3.87983258e-02-3.37556217e-05    3
 1.75603843e-08-3.96892420e-12 1.39477287e+03 2.85348956e+01                   4
C3H6O                   C   3H   6O   1     G    270.00   5000.00 1000.00      1
 2.05013627e+00 2.84631666e-02-1.22972868e-05 2.16016523e-09-1.19734269e-13    2
-1.30573812e+04 1.45196524e+01-9.69417354e-01 4.05413811e-02-3.04146085e-05    3
 1.42383797e-08-3.13928790e-12-1.24534705e+04 2.90872532e+01                   4
C3H6O2                  C   3H   6O   2     G    270.00   5000.00 1000.00      1
 4.92129520e+00 2.75485118e-02-1.36438870e-05 3.28209805e-09-3.08094573e-13    2
-4.31002257e+04 5.99752840e+00 1.69962765e+00 4.04351820e-02-3.29738923e-05    3
 1.61687683e-08-3.52976213e-12-4.24558922e+04 2.15402121e+01                   4
C3H7CHO                 C   4H   8O   1     G    270.00   5000.00 1000.00      1
-1.58063447e+00 5.38755313e-02-3.20439348e-05 8.66744377e-09-8.76502436e-13    2
-2.68835853e+04 3.59400534e+01 1.44607395e+00 4.17686976e-02-1.38836843e-05    3
-3.43938990e-09 2.15020598e-12-2.74889269e+04 2.13379349e+01                   4
C3H7OOH                 C   3H   8O   2     G    270.00   5000.00 1000.00      1
 5.13033839e+00 3.57172443e-02-1.84804599e-05 4.54141535e-09-4.30615580e-13    2
-2.60731817e+04 3.73774920e+00-4.14957810e-01 5.78984291e-02-5.17522372e-05    3
 2.67226002e-08-5.97591178e-12-2.49641224e+04 3.04905979e+01                   4
C3H8                    C   3H   8          G    270.00   5000.00 1000.00      1
 2.07965130e+00 3.00853216e-02-1.43497011e-05 3.35917878e-09-3.12514060e-13    2
-1.45075432e+04 1.18466940e+01-2.67363457e+00 4.90984651e-02-4.28694163e-05    3
 2.23723222e-08-5.06579992e-12-1.35568860e+04 3.47785506e+01                   4
C4H2                    C   4H   2          G    270.00   5000.00 1000.00      1
 8.24571690e+00 7.53969001e-03-2.96020789e-06 5.67182261e-10-4.42408976e-14    2
 5.32590913e+04-1.94977501e+01 2.65628307e+00 2.98974254e-02-3.64968109e-05    3
 2.29249176e-08-5.63367473e-12 5.43769781e+04 7.46803716e+00                   4
C4H3                    C   4H   3          G    270.00   5000.00 1000.00      1
 6.94592035e+00 1.34946576e-02-6.56533049e-06 1.55332321e-09-1.47058133e-13    2
 6.25231295e+04-9.12765752e+00 6.74091023e-01 3.85819749e-02-4.41963065e-05    3
 2.66406405e-08-6.41888746e-12 6.37774953e+04 2.11302935e+01                   4
C4H3O                   C   4H   3O   1     G    270.00   5000.00 1000.00      1
 5.06087746e+00 2.34273516e-02-1.35915425e-05 3.62945270e-09-3.64512353e-13    2
 2.06485517e+04-4.43890992e+00-8.02628921e+00 7.57760183e-02-9.21145425e-05    3
 5.59781194e-08-1.34516790e-11 2.32659850e+04 5.86991042e+01                   4
C4H4                    C   4H   4          G    270.00   5000.00 1000.00      1
 5.26183811e+00 1.90099246e-02-9.28246558e-06 2.13314602e-09-1.87612487e-13    2
 3.16979488e+04-2.22960342e+00-3.70012563e-01 4.15373273e-02-4.30735696e-05    3
 2.46605487e-08-5.81946316e-12 3.28243189e+04 2.49408206e+01                   4
C4H4O                   C   4H   4O   1     G    270.00   5000.00 1000.00      1
 4.45064217e+00 2.78307289e-02-1.59756692e-05 4.24362129e-09-4.25084721e-13    2
-8.02740756e+03-3.89791078e+00-9.99804525e+00 8.56254785e-02-1.02667794e-04    3
 6.20383710e-08-1.48737721e-11-5.13767007e+03 6.58086539e+01                   4
C4H5                    C   4H   5          G    270.00   5000.00 1000.00      1
 5.08914201e+00 2.42743262e-02-1.28028853e-05 3.18657224e-09-3.09115543e-13    2
 4.05406913e+04 3.75306872e-01-2.45231427e+00 5.44401513e-02-5.80516230e-05    3
 3.33523974e-08-7.85057182e-12 4.20489825e+04 3.67584740e+01                   4
C4H6                    C   4H   6          G    270.00   5000.00 1000.00      1
 3.88563938e+00 2.63861432e-02-1.27082651e-05 2.97660400e-09-2.75401820e-13    2
 1.07960628e+04 3.36363165e+00-2.76679658e+00 5.29958871e-02-5.26228809e-05    3
 2.95863478e-08-6.92783778e-12 1.21265500e+04 3.54577897e+01                   4
C4H6O2                  C   4H   6O   2     G    270.00   5000.00 1000.00      1
 2.59539075e+00 3.73099049e-02-1.95992767e-05 4.84867731e-09-4.60235134e-13    2
-4.18013168e+04 1.71071390e+01 2.00441277e-01 4.68897028e-02-3.39689736e-05    3
 1.44284752e-08-2.85518461e-12-4.13223270e+04 2.86613857e+01                   4
C4H7OH                  C   4H   8O   1     G    270.00   5000.00 1000.00      1
 5.40816057e+00 3.10499405e-02-1.35029995e-05 2.95252701e-09-2.61345149e-13    2
-2.19785971e+04 1.11337674e+00-2.02407825e+00 6.07788957e-02-5.80964324e-05    3
 3.26814823e-08-7.69358396e-12-2.04921493e+04 3.69696328e+01                   4
C4H8O                   C   4H   8O   1     G    270.00   5000.00 1000.00      1
 9.68593468e-01 4.42375152e-02-2.44208204e-05 6.25006196e-09-6.07202527e-13    2
-1.61694971e+04 1.88885210e+01-4.61463582e+00 6.65704324e-02-5.79201961e-05    3
 2.85829791e-08-6.19043182e-12-1.50528512e+04 4.58243749e+01                   4
C4H9CHO                 C   5H  10O   1     G    270.00   5000.00 1000.00      1
-2.73636008e+00 6.53007139e-02-3.77771661e-05 1.00241795e-08-1.00047000e-12    2
-2.94079953e+04 4.43256642e+01 2.88624217e+00 4.28103049e-02-4.04155255e-06    3
-1.24662295e-08 4.62213225e-12-3.05325158e+04 1.71998585e+01                   4
C4H9OOH                 C   4H  10O   2     G    270.00   5000.00 1000.00      1
 5.81712361e+00 4.48821553e-02-2.31745359e-05 5.69000523e-09-5.39450017e-13    2
-2.91651508e+04 1.93215210e+00-8.41777091e-01 7.15177581e-02-6.31279401e-05    3
 3.23256080e-08-7.19835072e-12-2.78333706e+04 3.40574988e+01                   4
C5EN-OO                 C   5H   9O   2     G    270.00   5000.00 1000.00      1
 7.41263124e+00 4.25848866e-02-2.15142801e-05 5.18544739e-09-4.84411710e-13    2
 5.55513282e+01-5.12780357e+00-1.11806349e+00 7.67076655e-02-7.26984485e-05    3
 3.93082263e-08-9.01510644e-12 1.76169027e+03 3.60278673e+01                   4
C5EN-OOQOOH-35          C   5H   9O   4     G    270.00   5000.00 1000.00      1
 1.16406237e+01 4.64801010e-02-2.47920060e-05 6.22302218e-09-5.98114686e-13    2
-1.35329595e+04-2.26132867e+01-1.00274428e+00 9.70535730e-02-1.00652214e-04    3
 5.67964942e-08-1.32414827e-11-1.10042859e+04 3.83836554e+01                   4
C5EN-OQOOH-35           C   5H   8O   3     G    270.00   5000.00 1000.00      1
 8.27185963e+00 4.44934996e-02-2.39700191e-05 6.06016404e-09-5.85793577e-13    2
-3.17736377e+04-7.85514855e+00-1.01261262e+00 8.16313886e-02-7.96768526e-05    3
 4.31980530e-08-9.87026582e-12-2.99167433e+04 3.69370631e+01                   4
C5EN-QOOH               C   5H   9O   2     G    270.00   5000.00 1000.00      1
 8.09302750e+00 4.30399902e-02-2.25332193e-05 5.58110271e-09-5.31787253e-13    2
 4.99912973e+03-7.67939848e+00-6.39169492e-01 7.79687782e-02-7.49264012e-05    3
 4.05098907e-08-9.26398425e-12 6.74556913e+03 3.44484043e+01                   4
C5H4O2                  C   5H   4O   2     G    270.00   5000.00 1000.00      1
 5.27911466e+00 3.29662661e-02-1.85550385e-05 4.87016912e-09-4.84034027e-13    2
-2.13900085e+04-7.52674270e-01-3.93961031e+00 6.98411660e-02-7.38673883e-05    3
 4.17450690e-08-9.70275899e-12-1.95462635e+04 4.37223448e+01                   4
C5H5O                   C   5H   5O   1     G    270.00   5000.00 1000.00      1
 4.10433466e+00 3.44234235e-02-1.90002443e-05 4.91716266e-09-4.84295809e-13    2
 1.86654666e+04 2.83862518e+00-6.52025574e+00 7.69217851e-02-8.27477867e-05    3
 4.74155243e-08-1.11088862e-11 2.07903847e+04 5.40961323e+01                   4
C5H7                    C   5H   7          G    270.00   5000.00 1000.00      1
 4.54344541e+00 3.20718406e-02-1.33966282e-05 2.26514352e-09-1.18305239e-13    2
 2.42592785e+04 4.63904072e-01-1.05561636e+00 5.44680877e-02-4.69909989e-05    3
 2.46613906e-08-5.71736701e-12 2.53790908e+04 2.74761406e+01                   4
C5H8                    C   5H   8          G    270.00   5000.00 1000.00      1
 5.66129970e+00 3.18044898e-02-1.32394635e-05 2.27004879e-09-1.25742690e-13    2
 5.90112252e+03-6.00805238e+00-1.42657858e-01 5.50203200e-02-4.80632089e-05    3
 2.54858790e-08-5.92970025e-12 7.06191403e+03 2.19926879e+01                   4
C5H8O                   C   5H   8O   1     G    270.00   5000.00 1000.00      1
 2.84462835e+00 4.45330503e-02-2.35962400e-05 5.93114958e-09-5.72575046e-13    2
-4.13083658e+03 1.13688234e+01-7.09796177e+00 8.43034107e-02-8.32517808e-05    3
 4.57015101e-08-1.05151652e-11-2.14231855e+03 5.93360734e+01                   4
C5H8O4                  C   5H   8O   4     G    270.00   5000.00 1000.00      1
 7.69620706e+00 4.89652453e-02-2.62402744e-05 6.65566708e-09-6.46860580e-13    2
-8.11351315e+04-6.05553732e+00-9.68937947e+00 1.18507591e-01-1.30553794e-04    3
 7.61980132e-08-1.80324471e-11-7.76580142e+04 7.78198679e+01                   4
C5H9CHO                 C   6H  10O   1     G    270.00   5000.00 1000.00      1
-1.73632839e+00 6.56795039e-02-3.60480945e-05 9.18866110e-09-8.90011778e-13    2
-3.08332387e+04 3.19010755e+01-8.54574951e+00 9.29171884e-02-7.69046213e-05    3
 3.64263456e-08-7.69943290e-12-2.94713544e+04 6.47525962e+01                   4
C6H10O5                 C   6H  10O   5     G    270.00   5000.00 1000.00      1
 1.04437971e+01 6.03304684e-02-3.24849077e-05 8.25526937e-09-8.02733246e-13    2
-1.07406179e+05-2.08237804e+01-1.12588891e+01 1.47141213e-01-1.62701025e-04    3
 9.50660143e-08-2.25054195e-11-1.03065642e+05 8.38791353e+01                   4
C6H2                    C   6H   2          G    270.00   5000.00 1000.00      1
 1.12834070e+01 1.09176587e-02-4.62121370e-06 9.62055036e-10-8.12404245e-14    2
 8.13240660e+04-3.22944950e+01 3.77958982e+00 4.09329273e-02-4.96441166e-05    3
 3.09773236e-08-7.58505758e-12 8.28248294e+04 3.90708520e+00                   4
C6H3                    C   6H   3          G    270.00   5000.00 1000.00      1
 9.56088799e+00 1.65127703e-02-7.75747254e-06 1.77287495e-09-1.60461604e-13    2
 8.34787592e+04-2.01433351e+01 3.23453900e+00 4.18181663e-02-4.57155665e-05    3
 2.70782709e-08-6.48681059e-12 8.47440290e+04 1.03776418e+01                   4
C6H4                    C   6H   4          G    270.00   5000.00 1000.00      1
 1.08111962e+01 1.98827736e-02-1.08735054e-05 3.08805801e-09-3.29992626e-13    2
 5.73731249e+04-2.97358231e+01-4.33288772e+00 8.04591092e-02-1.01738009e-04    3
 6.36643935e-08-1.54740765e-11 6.04019417e+04 4.33256275e+01                   4
C6H4C2H                 C   8H   5          G    270.00   5000.00 1000.00      1
 1.43853627e+01 1.58486838e-02 1.08487273e-06-3.37998556e-09 6.87482216e-13    2
 6.11726434e+04-4.96555501e+01-1.10162935e+01 1.17455309e-01-1.51325065e-04    3
 9.82266395e-08-2.47141740e-11 6.62529746e+04 7.28927578e+01                   4
C6H4CH3                 C   7H   7          G    270.00   5000.00 1000.00      1
 5.02550741e+00 3.86120702e-02-1.75924525e-05 3.54518759e-09-2.64928739e-13    2
 3.24305129e+04 5.91583271e-01-6.96605088e+00 8.65783034e-02-8.95418023e-05    3
 5.15114208e-08-1.22564870e-11 3.48288246e+04 5.84439203e+01                   4