ELEMENTS
H  O  N
END
SPECIES
H2 O2 H2O HE N2   
END
THERMO
END
REACTIONS		
!Units are cal/mole, mole,  cm-3,  s, K

H2+0.5O2=>H2O			1.21E+18		 -1.00		  40000.
FORD/H2 0.25/ 
FORD/O2 1.5/

END
