/*--------------------------------*- C++ -*----------------------------------*\
| =========                 |                                                 |
| \\      /  F ield         | OpenFOAM: The Open Source CFD Toolbox           |
|  \\    /   O peration     | Version:  2.2.2                                 |
|   \\  /    A nd           | Web:      www.OpenFOAM.org                      |
|    \\/     M anipulation  |                                                 |
\*---------------------------------------------------------------------------*/
FoamFile
{
    version     2.0;
    format      ascii;
    class       dictionary;
    location    "system";
    object      controlDict;
}
// * * * * * * * * * * * * * * * * * * * * * * * * * * * * * * * * * * * * * //

application     	edcPimpleSMOKE;

startFrom       	latestTime;

startTime       	0;

stopAt          	endTime;

endTime         	1.0;

deltaT          	1e-7;

writeControl    	adjustableRunTime;

writeInterval   	1e-2;

purgeWrite      	5;

writeFormat     	ascii;

writePrecision  	12;

writeCompression 	off;
	
timeFormat      	general;

timePrecision   	6;

runTimeModifiable 	true;

adjustTimeStep  	yes;

maxCo           	0.1;

// ************************************************************************* //

functions
{
        #includeFunc  probes
        #includeFunc  cellMax(T)
}
